#======================================================================

# CRYSTAL DATA

#----------------------------------------------------------------------

data_VESTA_phase_1

_chemical_name_common                  2d Perovskite
_cell_length_a                         10.238000(1.)
_cell_length_b                         12.083590(1.)
_cell_length_c                         12.229305(1.)
_cell_angle_alpha                      90
_cell_angle_beta                       90
_cell_angle_gamma                       90
_space_group_name_H-M_alt              'P 1'
_space_group_IT_number                 1

loop_
_space_group_symop_operation_xyz
   'x, y, z'

loop_
   _atom_site_label
   _atom_site_occupancy
   _atom_site_fract_x
   _atom_site_fract_y
   _atom_site_fract_z
   _atom_site_adp_type
   _atom_site_B_iso_or_equiv
   _atom_site_type_symbol
pb1a	1.0	0.000000	0.000000	0.000000	Biso	1.000000	Pb
i1a	1.0	0.070284	0.250000	-0.035135	Biso	1.000000	I
i2a	1.0	0.294970	-0.053122	0.044515	Biso	1.000000	I
i3a	1.0	-0.042645	0.044594	0.250000	Biso	1.000000	I
i4a	1.0	-0.294970	0.053122	-0.044515	Biso	1.000000	I
n1a	1.0	0.250000	0.250000	0.250000	Biso	1.000000	N
n2a	1.0	0.750000	0.250000	0.250000	Biso	1.000000	N
c1a	1.0	0.350000	0.230000	0.230000	Biso	1.000000	C
c1a	1.0	0.450000	0.270000	0.270000	Biso	1.000000	C
c1a	1.0	0.550000	0.230000	0.230000	Biso	1.000000	C
c1a	1.0	0.650000	0.270000	0.270000	Biso	1.000000	C
pb1b	1.0	0.000000	0.000000	0.500000	Biso	1.000000	Pb
i1b	1.0	-0.070284	-0.250000	0.464865	Biso	1.000000	I
i2b	1.0	-0.294970	0.053122	0.544515	Biso	1.000000	I
i3b	1.0	0.042645	-0.044594	0.750000	Biso	1.000000	I
i4b	1.0	0.294970	-0.053122	0.455485	Biso	1.000000	I
n1b	1.0	0.250000	0.250000	0.750000	Biso	1.000000	N
n2b	1.0	0.750000	0.250000	0.750000	Biso	1.000000	N
c1b	1.0	0.350000	0.230000	0.730000	Biso	1.000000	C
c1b	1.0	0.450000	0.270000	0.770000	Biso	1.000000	C
c1b	1.0	0.550000	0.230000	0.730000	Biso	1.000000	C
c1b	1.0	0.650000	0.270000	0.770000	Biso	1.000000	C
pb1c	1.0	0.000000	0.500000	0.000000	Biso	1.000000	Pb
i1c	1.0	-0.070284	0.750000	0.035135	Biso	1.000000	I
i2c	1.0	-0.294970	0.446878	-0.044515	Biso	1.000000	I
i3c	1.0	0.042645	0.544594	-0.250000	Biso	1.000000	I
i4c	1.0	0.294970	0.553122	0.044515	Biso	1.000000	I
n1c	1.0	0.250000	0.750000	0.250000	Biso	1.000000	N
n2c	1.0	0.750000	0.750000	0.250000	Biso	1.000000	N
c1c	1.0	0.350000	0.730000	0.230000	Biso	1.000000	C
c1c	1.0	0.450000	0.770000	0.270000	Biso	1.000000	C
c1c	1.0	0.550000	0.730000	0.230000	Biso	1.000000	C
c1c	1.0	0.650000	0.770000	0.270000	Biso	1.000000	C
pb1d	1.0	0.000000	0.500000	0.500000	Biso	1.000000	Pb
i1d	1.0	0.070284	0.250000	0.535135	Biso	1.000000	I
i2d	1.0	0.294970	0.553122	0.455485	Biso	1.000000	I
i3d	1.0	-0.042645	0.455406	0.250000	Biso	1.000000	I
i4d	1.0	-0.294970	0.446878	0.544515	Biso	1.000000	I
n1d	1.0	0.250000	0.750000	0.750000	Biso	1.000000	N
n2d	1.0	0.750000	0.750000	0.750000	Biso	1.000000	N
c1d	1.0	0.350000	0.730000	0.730000	Biso	1.000000	C
c1d	1.0	0.450000	0.770000	0.770000	Biso	1.000000	C
c1d	1.0	0.550000	0.730000	0.730000	Biso	1.000000	C
c1d	1.0	0.650000	0.770000	0.770000	Biso	1.000000	C
