#======================================================================

# CRYSTAL DATA

#----------------------------------------------------------------------

data_VESTA_phase_1

_chemical_name_common                  3d Perovskite
_cell_length_a                         12.800000(1.)
_cell_length_b                         12.800000(1.)
_cell_length_c                         12.800000(1.)
_cell_angle_alpha                      90
_cell_angle_beta                       90
_cell_angle_gamma                       90
_space_group_name_H-M_alt              'P 1'
_space_group_IT_number                 1

loop_
_space_group_symop_operation_xyz
   'x, y, z'

loop_
   _atom_site_label
   _atom_site_occupancy
   _atom_site_fract_x
   _atom_site_fract_y
   _atom_site_fract_z
   _atom_site_adp_type
   _atom_site_B_iso_or_equiv
   _atom_site_type_symbol
Pb1a	1.0	0.250000	0.250000	0.250000	Biso	1.000000	Pb
I1a	1.0	0.250000	0.500000	0.250000	Biso	1.000000	I
I2a	1.0	0.500000	0.250000	0.250000	Biso	1.000000	I
I3a	1.0	0.250000	0.250000	0.500000	Biso	1.000000	I
n1a	1.0	0.442227	0.500000	0.500000	Biso	1.000000	N
c1a	1.0	0.557773	0.500000	0.500000	Biso	1.000000	C
Pb1b	1.0	0.250000	0.250000	0.750000	Biso	1.000000	Pb
I1b	1.0	0.250000	0.500000	0.750000	Biso	1.000000	I
I2b	1.0	0.500000	0.250000	0.750000	Biso	1.000000	I
I3b	1.0	0.250000	0.250000	1.000000	Biso	1.000000	I
n1b	1.0	0.442227	0.500000	1.000000	Biso	1.000000	N
c1b	1.0	0.557773	0.500000	1.000000	Biso	1.000000	C
Pb1c	1.0	0.250000	0.750000	0.250000	Biso	1.000000	Pb
I1c	1.0	0.250000	1.000000	0.250000	Biso	1.000000	I
I2c	1.0	0.500000	0.750000	0.250000	Biso	1.000000	I
I3c	1.0	0.250000	0.750000	0.500000	Biso	1.000000	I
n1c	1.0	0.442227	1.000000	0.500000	Biso	1.000000	N
c1c	1.0	0.557773	1.000000	0.500000	Biso	1.000000	C
Pb1d	1.0	0.250000	0.750000	0.750000	Biso	1.000000	Pb
I1d	1.0	0.250000	1.000000	0.750000	Biso	1.000000	I
I2d	1.0	0.500000	0.750000	0.750000	Biso	1.000000	I
I3d	1.0	0.250000	0.750000	1.000000	Biso	1.000000	I
n1d	1.0	0.442227	1.000000	1.000000	Biso	1.000000	N
c1d	1.0	0.557773	1.000000	1.000000	Biso	1.000000	C
Pb1e	1.0	0.750000	0.250000	0.250000	Biso	1.000000	Pb
I1e	1.0	0.750000	0.500000	0.250000	Biso	1.000000	I
I2e	1.0	1.000000	0.250000	0.250000	Biso	1.000000	I
I3e	1.0	0.750000	0.250000	0.500000	Biso	1.000000	I
n1e	1.0	0.942227	0.500000	0.500000	Biso	1.000000	N
c1e	1.0	1.057773	0.500000	0.500000	Biso	1.000000	C
Pb1f	1.0	0.750000	0.250000	0.750000	Biso	1.000000	Pb
I1f	1.0	0.750000	0.500000	0.750000	Biso	1.000000	I
I2f	1.0	1.000000	0.250000	0.750000	Biso	1.000000	I
I3f	1.0	0.750000	0.250000	1.000000	Biso	1.000000	I
n1f	1.0	0.942227	0.500000	1.000000	Biso	1.000000	N
c1f	1.0	1.057773	0.500000	1.000000	Biso	1.000000	C
Pb1g	1.0	0.750000	0.750000	0.250000	Biso	1.000000	Pb
I1g	1.0	0.750000	1.000000	0.250000	Biso	1.000000	I
I2g	1.0	1.000000	0.750000	0.250000	Biso	1.000000	I
I3g	1.0	0.750000	0.750000	0.500000	Biso	1.000000	I
n1g	1.0	0.942227	1.000000	0.500000	Biso	1.000000	N
c1g	1.0	1.057773	1.000000	0.500000	Biso	1.000000	C
Pb1h	1.0	0.750000	0.750000	0.750000	Biso	1.000000	Pb
I1h	1.0	0.750000	1.000000	0.750000	Biso	1.000000	I
I2h	1.0	1.000000	0.750000	0.750000	Biso	1.000000	I
I3h	1.0	0.750000	0.750000	1.000000	Biso	1.000000	I
n1h	1.0	0.942227	1.000000	1.000000	Biso	1.000000	N
c1h	1.0	1.057773	1.000000	1.000000	Biso	1.000000	C
